16
1-Indolizinyl 
C  0.0784  1.9475 -0.3681
H -0.3810  2.9138 -0.3681
C  1.4607  1.6737 -0.3682
H  2.2470  2.3995 -0.3682
C  1.6230  0.2782 -0.3682
H  2.5288 -0.2915 -0.3681
N  0.3785 -0.2374 -0.3682
C  0.0106 -1.6200 -0.3682
H  0.7431 -2.4000 -0.3681
C -1.3046 -1.9471 -0.3681
H -1.5908 -2.9782 -0.3682
C -2.3618 -0.8978 -0.3683
H -3.3950 -1.1760 -0.3682
C -2.0081  0.4067 -0.3682
H -2.7404  1.1867 -0.3682
C -0.5780  0.7102 -0.3682
